12
	Energy:     178.0049481
C         -5.40086        0.73723        1.37288
C         -4.13557        0.23414        2.11547
C         -6.19268       -0.25647        0.56259
C         -5.82264       -1.71150        0.43248
C         -4.55695       -2.21449        1.17441
C         -3.76595       -1.22111        1.98596
O         -7.19018        0.13993       -0.02219
O         -2.76875       -1.61761        2.57116
H         -6.39572       -2.35559       -0.13476
H         -4.26446       -3.20233        1.11401
H         -5.69253        1.72539        1.43204
H         -3.56251        0.87824        2.68270
