10
	Energy:     178.0049481
C         -5.40086        0.73723        1.37288
C         -6.19268       -0.25647        0.56259
C         -5.82264       -1.71150        0.43248
C         -4.55695       -2.21449        1.17441
H         -6.39572       -2.35559       -0.13476
H         -3.99409       -1.55816        1.73783
H         -4.27761       -3.20552        1.10468
H         -5.70592        1.72183        1.42318
H         -4.55356        0.43313        1.87748
H         -7.03520        0.07806        0.06936
