23
	Energy:      91.4569153
C         -3.88852        0.67353       -0.67269
C         -2.76969        0.28059        0.02392
C         -4.53219        1.76179        0.13779
C         -2.72338        1.12658        1.26395
C         -3.27920        2.43460        0.69963
H         -3.48708        3.21107        1.47151
H         -2.63030        2.87996       -0.09141
C         -5.13784        1.14274        1.42086
C         -3.87250        0.69848        2.20870
H         -5.25723        2.37439       -0.43912
H         -1.72850        1.13519        1.75784
H         -4.17195        0.32586       -1.65687
H         -2.02851       -0.42693       -0.32234
C         -6.16628        0.07030        1.14113
H         -5.63320        1.95443        2.00178
C         -5.98057       -1.31859        1.60246
C         -4.89324       -1.70032        2.27957
C         -3.80751       -0.75781        2.60996
H         -3.81365        1.31572        3.13458
O         -7.17819        0.35953        0.52156
O         -2.83498       -1.16525        3.22614
H         -6.74941       -2.05399        1.38340
H         -4.80562       -2.73641        2.59387
