22
	Energy:       9.0894600
C         -3.72790        0.92110       -0.75435
C         -2.63967        0.53945       -0.07692
C         -4.82502        1.66471       -0.05830
C         -2.51263        0.85375        1.38124
C         -5.10025        1.13270        1.36256
C         -3.84165        0.69126        2.14608
H         -3.80687        0.74768       -1.82427
H         -1.81269        0.04836       -0.58285
C         -6.22291        0.11323        1.26396
H         -5.54822        1.96039        1.93319
C         -6.00358       -1.28199        1.66763
C         -4.92176       -1.66146        2.34102
C         -3.86998       -0.71209        2.72852
H         -3.78249        1.34097        3.03251
O         -7.33582        0.41643        0.83317
O         -3.01349       -1.09970        3.52365
H         -6.79279       -1.98277        1.41900
H         -4.78656       -2.68649        2.66783
H         -5.72526        1.62644       -0.68295
H         -4.53897        2.72333       -0.00538
H         -2.15744        1.88810        1.47725
H         -1.72378        0.22319        1.80809
