15
	Energy:      12.6856477
C         -2.44186        1.25846       -0.00000
C         -1.03995        1.31277        0.00000
C         -3.19118        2.43870       -0.00000
H         -2.95262        0.30363       -0.00000
C         -0.39612        2.55971        0.00000
N         -0.27935        0.11783        0.00000
C         -1.14847        3.74474       -0.00000
H          0.68592        2.60891        0.00000
C         -2.54638        3.67896       -0.00000
O         -0.54011        4.94804       -0.00000
H         -4.27259        2.39207       -0.00000
H         -3.13343        4.58879       -0.00000
H          0.42372        5.03689       -0.00000
H         -0.74404       -0.80200        0.00000
H          0.75073        0.14994        0.00000
